<edges>
    <edge id="e0" from="n0" to="n1" numLanes="2" speed="16.67"/>
    <edge id="e1" from="n1" to="n2" numLanes="2" speed="22.22"/>
    <edge id="e2" from="n2" to="n1" numLanes="2" speed="22.22"/>
    <edge id="e3" from="n1" to="n0" numLanes="2" speed="16.67"/>
    <edge id="e4" from="n3" to="n1" numLanes="1" speed="13.89"/>
    <edge id="e5" from="n1" to="n3" numLanes="1" speed="13.89"/>
    <edge id="e6" from="n4" to="n1" numLanes="1" speed="13.89"/>
    <edge id="e7" from="n1" to="n4" numLanes="1" speed="13.89"/>
</edges>
